test/temp.json
{"repairs":6,"time_elapsed":6.0,"bus":{"4":{"zone":1,"bus_i":4,"bus_type":3,"status":1.0,"damaged":1,"vmax":1.1,"source_id":["bus",4],"area":1,"vmin":0.9,"index":4,"va":null,"vm":0.9640154069617105,"base_kv":230.0},"1":{"zone":1,"bus_i":1,"bus_type":2,"status":1,"damaged":0,"vmax":1.1,"source_id":["bus",1],"area":1,"vmin":0.9,"index":1,"va":null,"vm":0.982111143604744,"base_kv":230.0},"10":{"zone":1,"bus_i":10,"bus_type":2,"status":1,"damaged":0,"vmax":1.1,"source_id":["bus",10],"area":1,"vmin":0.9,"index":10,"va":null,"vm":0.9951815463499936,"base_kv":230.0},"2":{"zone":1,"bus_i":2,"bus_type":1,"status":1,"damaged":0,"vmax":1.1,"source_id":["bus",2],"area":1,"vmin":0.9,"index":2,"va":null,"vm":0.9371365197114482,"base_kv":230.0},"3":{"zone":1,"bus_i":3,"bus_type":2,"status":1,"damaged":0,"vmax":1.1,"source_id":["bus",3],"area":1,"vmin":0.9,"index":3,"va":null,"vm":1.0484220925052852,"base_kv":230.0}},"source_type":"matpower","name":"2 period restoration of case5","dcline":{},"source_version":"2","gen":{"4":{"pg":3.333333727944745e-9,"model":2,"shutdown":0.0,"startup":0.0,"qg":3.214874912944964e-12,"damaged":1,"gen_bus":4,"pmax":2.0,"vg":1.06414,"mbase":100.0,"source_id":["gen",4],"index":4,"cost":[4000.0,0.0],"qmax":1.5,"gen_status":0.0,"qmin":-1.5,"pmin":0.0,"ncost":2},"1":{"pg":3.333333433638879e-9,"model":2,"shutdown":0.0,"startup":0.0,"qg":1.4763623469799886e-16,"damaged":1,"gen_bus":1,"pmax":0.4,"vg":1.07762,"mbase":100.0,"source_id":["gen",1],"index":1,"cost":[1400.0,0.0],"qmax":0.3,"gen_status":0.0,"qmin":-0.3,"pmin":0.0,"ncost":2},"5":{"pg":5.562513635372785,"model":2,"shutdown":0.0,"startup":0.0,"qg":3.335425407559647,"damaged":0,"gen_bus":10,"pmax":6.0,"vg":1.06907,"mbase":100.0,"source_id":["gen",5],"index":5,"cost":[1000.0,0.0],"qmax":4.5,"gen_status":1,"qmin":-4.5,"pmin":0.0,"ncost":2},"2":{"pg":3.3333334902837558e-9,"model":2,"shutdown":0.0,"startup":0.0,"qg":6.347100823146235e-13,"damaged":1,"gen_bus":1,"pmax":1.7,"vg":1.07762,"mbase":100.0,"source_id":["gen",2],"index":2,"cost":[1500.0,0.0],"qmax":1.275,"gen_status":0.0,"qmin":-1.275,"pmin":0.0,"ncost":2},"3":{"pg":5.117092814103672,"model":2,"shutdown":0.0,"startup":0.0,"qg":2.1659087162612414,"damaged":0,"gen_bus":3,"pmax":5.2,"vg":1.1,"mbase":100.0,"source_id":["gen",3],"index":3,"cost":[3000.0,0.0],"qmax":3.9,"gen_status":1,"qmin":-3.9,"pmin":0.0,"ncost":2}},"branch":{"4":{"br_r":0.00108,"rate_a":4.26,"shift":0.0,"rate_b":4.26,"damaged":1,"br_x":0.0108,"rate_c":4.26,"g_to":0.0,"g_fr":0.0,"source_id":["branch",4],"b_fr":0.00926,"f_bus":2,"br_status":0.0,"t_bus":3,"b_to":0.00926,"index":4,"angmin":-0.5235987755982988,"angmax":0.5235987755982988,"transformer":false,"tap":1.0},"1":{"br_r":0.00281,"rate_a":4.0,"shift":0.0,"rate_b":4.0,"damaged":1,"br_x":0.0281,"rate_c":4.0,"g_to":0.0,"g_fr":0.0,"source_id":["branch",1],"b_fr":0.00356,"f_bus":1,"br_status":1.0,"t_bus":2,"b_to":0.00356,"index":1,"angmin":-0.5235987755982988,"angmax":0.5235987755982988,"transformer":false,"tap":1.0},"5":{"br_r":0.00297,"rate_a":4.26,"shift":0.017453292519943295,"rate_b":4.26,"damaged":1,"br_x":0.0297,"rate_c":4.26,"g_to":0.0,"g_fr":0.0,"source_id":["branch",5],"b_fr":0.00337,"f_bus":3,"br_status":0.0,"t_bus":4,"b_to":0.00337,"index":5,"angmin":-0.5235987755982988,"angmax":0.5235987755982988,"transformer":true,"tap":1.05},"2":{"br_r":0.00304,"rate_a":4.26,"shift":0.0,"rate_b":4.26,"damaged":1,"br_x":0.0304,"rate_c":4.26,"g_to":0.0,"g_fr":0.0,"source_id":["branch",2],"b_fr":0.00329,"f_bus":1,"br_status":0.0,"t_bus":4,"b_to":0.00329,"index":2,"angmin":-0.5235987755982988,"angmax":0.5235987755982988,"transformer":false,"tap":1.0},"6":{"br_r":0.00297,"rate_a":4.26,"shift":-0.017453292519943295,"rate_b":4.26,"damaged":1,"br_x":0.0297,"rate_c":4.26,"g_to":0.0,"g_fr":0.0,"source_id":["branch",6],"b_fr":0.00337,"f_bus":3,"br_status":1.0,"t_bus":4,"b_to":0.00337,"index":6,"angmin":-0.5235987755982988,"angmax":0.5235987755982988,"transformer":true,"tap":1.05},"7":{"br_r":0.00297,"rate_a":2.4,"shift":0.0,"rate_b":2.4,"damaged":1,"br_x":0.0297,"rate_c":2.4,"g_to":0.0,"g_fr":0.0,"source_id":["branch",7],"b_fr":0.00337,"f_bus":4,"br_status":1.0,"t_bus":10,"b_to":0.00337,"index":7,"angmin":-0.5235987755982988,"angmax":0.5235987755982988,"transformer":false,"tap":1.0},"3":{"br_r":0.00064,"rate_a":4.26,"shift":0.0,"rate_b":4.26,"damaged":1,"br_x":0.0064,"rate_c":4.26,"g_to":0.0,"g_fr":0.0,"source_id":["branch",3],"b_fr":0.01563,"f_bus":1,"br_status":1.0,"t_bus":10,"b_to":0.01563,"index":3,"angmin":-0.5235987755982988,"angmax":0.5235987755982988,"transformer":false,"tap":1.0}},"storage":{"1":{"energy_rating":1.0,"x":0.0,"energy":0.2,"r":0.1,"qs":3.333333244992395e-9,"thermal_rating":1.0,"status":0.0,"damaged":1,"source_id":["storage",1],"discharge_rating":0.7,"storage_bus":4,"charge_efficiency":0.8,"se":0.1999999862976571,"q_loss":0.0,"index":1,"ps":3.333333046869587e-9,"qmax":0.7,"qmin":-0.5,"charge_rating":0.5,"discharge_efficiency":0.9,"p_loss":0.0},"2":{"energy_rating":1.0,"x":0.0,"energy":0.3,"r":0.1,"qs":0.36265283087931216,"thermal_rating":1.0,"status":1,"damaged":0,"source_id":["storage",2],"discharge_rating":0.7,"storage_bus":10,"charge_efficiency":0.9,"se":0.3628774303888856,"q_loss":0.0,"index":2,"ps":0.48943056520064215,"qmax":0.7,"qmin":-0.5,"charge_rating":0.5,"discharge_efficiency":0.8,"p_loss":0.0}},"switch":{},"baseMVA":100.0,"per_unit":true,"repaired_total":6,"shunt":{},"load":{"1":{"source_id":["bus",2],"load_bus":2,"status":0.9999988988650611,"qd":0.9860989141708367,"pd":2.999996696595183,"index":1},"2":{"source_id":["bus",3],"load_bus":3,"status":0.9999993319627017,"qd":0.9860993412484201,"pd":2.9999979958881053,"index":2},"3":{"source_id":["bus",4],"load_bus":4,"status":0.9999987599698487,"qd":1.31469836973236,"pd":3.9999950398793946,"index":3}}}